!-Generator IDFEditor 1.47
!-Option SortedOrder UseSpecialFormat

!-NOTE: All comments with '!-' are ignored by the IDFEditor and are generated automatically.
!-      Use '!' comments if they need to be retained when using the IDFEditor.


!-   ===========  ALL OBJECTS IN CLASS: VERSION ===========

! weatherfile = USA_WA_Pasco-Tri.Cities.AP.727845_TMY3.epw;
Version,8.4;

!-   ===========  ALL OBJECTS IN CLASS: SIMULATIONCONTROL ===========


SimulationControl,
    Yes,                     !- Do Zone Sizing Calculation
    Yes,                     !- Do System Sizing Calculation
    Yes,                     !- Do Plant Sizing Calculation
    YES,                      !- Run Simulation for Sizing Periods
    YES;                     !- Run Simulation for Weather File Run Periods


!-   ===========  ALL OBJECTS IN CLASS: BUILDING ===========

Building,
    CLGSetPtNormal,          !- Name
    0.0000,                  !- North Axis {deg}
    City,                    !- Terrain
    0.0400,                  !- Loads Convergence Tolerance Value
    0.2000,                  !- Temperature Convergence Tolerance Value {deltaC}
    FullExterior,            !- Solar Distribution
    25,                      !- Maximum Number of Warmup Days
    6;                       !- Minimum Number of Warmup Days


!-   ===========  ALL OBJECTS IN CLASS: SHADOWCALCULATION ===========

ShadowCalculation,
    AverageOverDaysInFrequency,  !- Calculation Method
    30;                      !- Calculation Frequency


!-   ===========  ALL OBJECTS IN CLASS: SURFACECONVECTIONALGORITHM:INSIDE ===========

SurfaceConvectionAlgorithm:Inside,TARP;

!-   ===========  ALL OBJECTS IN CLASS: SURFACECONVECTIONALGORITHM:OUTSIDE ===========

SurfaceConvectionAlgorithm:Outside,TARP;

!-   ===========  ALL OBJECTS IN CLASS: HEATBALANCEALGORITHM ===========

HeatBalanceAlgorithm,ConductionTransferFunction;

!-   ===========  ALL OBJECTS IN CLASS: TIMESTEP ===========

  Timestep,60;

!-   ===========  ALL OBJECTS IN CLASS: SITE:LOCATION ===========


Site:Location,
    Pasco WA USA Design Conditions,  !- Name
    46.27,                   !- Latitude {deg}
    -119.12,                 !- Longitude {deg}
    -8.0,                    !- Time Zone {hr}
    136.00;                  !- Elevation {m}


!-   ===========  ALL OBJECTS IN CLASS: SIZINGPERIOD:DESIGNDAY ===========

! Pasco WA USA Annual Heating Design Conditions Wind Speed=2.5m/s Wind Dir=310
! Coldest Month=DEC
! Pasco WA USA Annual Heating 99.6%, MaxDB=-14°C
SizingPeriod:DesignDay,
    Pasco Ann Htg 99.6% Condns DB,  !- Name
    12,                      !- Month
    21,                      !- Day of Month
    WinterDesignDay,         !- Day Type
    -14,                     !- Maximum Dry-Bulb Temperature {C}
    0.0,                     !- Daily Dry-Bulb Temperature Range {deltaC}
    DefaultMultipliers,      !- Dry-Bulb Temperature Range Modifier Type
    ,                        !- Dry-Bulb Temperature Range Modifier Day Schedule Name
    Wetbulb,                 !- Humidity Condition Type
    -14,                     !- Wetbulb or DewPoint at Maximum Dry-Bulb {C}
    ,                        !- Humidity Condition Day Schedule Name
    ,                        !- Humidity Ratio at Maximum Dry-Bulb {kgWater/kgDryAir}
    ,                        !- Enthalpy at Maximum Dry-Bulb {J/kg}
    ,                        !- Daily Wet-Bulb Temperature Range {deltaC}
    99702.,                  !- Barometric Pressure {Pa}
    2.5,                     !- Wind Speed {m/s}
    310,                     !- Wind Direction {deg}
    No,                      !- Rain Indicator
    No,                      !- Snow Indicator
    No,                      !- Daylight Saving Time Indicator
    ASHRAEClearSky,          !- Solar Model Indicator
    ,                        !- Beam Solar Day Schedule Name
    ,                        !- Diffuse Solar Day Schedule Name
    ,                        !- ASHRAE Clear Sky Optical Depth for Beam Irradiance (taub) {dimensionless}
    ,                        !- ASHRAE Clear Sky Optical Depth for Diffuse Irradiance (taud) {dimensionless}
    0.00;                    !- Sky Clearness

! Pasco Annual Cooling Design Conditions Wind Speed=3.1m/s Wind Dir=330
! Hottest Month=JUL
! Pasco WA USA Annual Cooling (DB=>MWB) .4%, MaxDB=37.5°C MWB=21.1°C
SizingPeriod:DesignDay,
    Pasco Ann Clg .4% Condns DB=>MWB,  !- Name
    7,                       !- Month
    21,                      !- Day of Month
    SummerDesignDay,         !- Day Type
    37.5,                    !- Maximum Dry-Bulb Temperature {C}
    17.8,                    !- Daily Dry-Bulb Temperature Range {deltaC}
    DefaultMultipliers,      !- Dry-Bulb Temperature Range Modifier Type
    ,                        !- Dry-Bulb Temperature Range Modifier Day Schedule Name
    Wetbulb,                 !- Humidity Condition Type
    21.1,                    !- Wetbulb or DewPoint at Maximum Dry-Bulb {C}
    ,                        !- Humidity Condition Day Schedule Name
    ,                        !- Humidity Ratio at Maximum Dry-Bulb {kgWater/kgDryAir}
    ,                        !- Enthalpy at Maximum Dry-Bulb {J/kg}
    ,                        !- Daily Wet-Bulb Temperature Range {deltaC}
    99702.,                  !- Barometric Pressure {Pa}
    3.1,                     !- Wind Speed {m/s}
    330,                     !- Wind Direction {deg}
    No,                      !- Rain Indicator
    No,                      !- Snow Indicator
    No,                      !- Daylight Saving Time Indicator
    ASHRAETau,               !- Solar Model Indicator
    ,                        !- Beam Solar Day Schedule Name
    ,                        !- Diffuse Solar Day Schedule Name
    0.398,                   !- ASHRAE Clear Sky Optical Depth for Beam Irradiance (taub) {dimensionless}
    2.219;                   !- ASHRAE Clear Sky Optical Depth for Diffuse Irradiance (taud) {dimensionless}


!-   ===========  ALL OBJECTS IN CLASS: RUNPERIOD ===========

RunPeriod,
    Typical Summer Week,     !- Name
    6,                       !- Begin Month
    22,                       !- Begin Day of Month
    6,                      !- End Month
    22,                      !- End Day of Month
    Monday,                  !- Day of Week for Start Day
    No,                      !- Use Weather File Holidays and Special Days
    No,                      !- Use Weather File Daylight Saving Period
    No,                      !- Apply Weekend Holiday Rule
    Yes,                     !- Use Weather File Rain Indicators
    Yes,                     !- Use Weather File Snow Indicators
    1;                       !- Number of Times Runperiod to be Repeated


!-   ===========  ALL OBJECTS IN CLASS: RUNPERIODCONTROL:SPECIALDAYS ===========

! US National Holidays
RunPeriodControl:SpecialDays,
    New Years Day,           !- Name
    January 1,               !- Start Date
    1,                       !- Duration {days}
    Holiday;                 !- Special Day Type

RunPeriodControl:SpecialDays,
    Veterans Day,            !- Name
    November 11,             !- Start Date
    1,                       !- Duration {days}
    Holiday;                 !- Special Day Type

RunPeriodControl:SpecialDays,
    Christmas,               !- Name
    December 25,             !- Start Date
    1,                       !- Duration {days}
    Holiday;                 !- Special Day Type

RunPeriodControl:SpecialDays,
    Independence Day,        !- Name
    July 4,                  !- Start Date
    1,                       !- Duration {days}
    Holiday;                 !- Special Day Type

RunPeriodControl:SpecialDays,
    MLK Day,                 !- Name
    3rd Monday in January,   !- Start Date
    1,                       !- Duration {days}
    Holiday;                 !- Special Day Type

RunPeriodControl:SpecialDays,
    Presidents Day,          !- Name
    3rd Monday in February,  !- Start Date
    1,                       !- Duration {days}
    Holiday;                 !- Special Day Type

RunPeriodControl:SpecialDays,
    Memorial Day,            !- Name
    Last Monday in May,      !- Start Date
    1,                       !- Duration {days}
    Holiday;                 !- Special Day Type

RunPeriodControl:SpecialDays,
    Labor Day,               !- Name
    1st Monday in September, !- Start Date
    1,                       !- Duration {days}
    Holiday;                 !- Special Day Type

RunPeriodControl:SpecialDays,
    Columbus Day,            !- Name
    2nd Monday in October,   !- Start Date
    1,                       !- Duration {days}
    Holiday;                 !- Special Day Type

RunPeriodControl:SpecialDays,
    Thanksgiving,            !- Name
    4th Thursday in November,!- Start Date
    1,                       !- Duration {days}
    Holiday;                 !- Special Day Type


!-   ===========  ALL OBJECTS IN CLASS: RUNPERIODCONTROL:DAYLIGHTSAVINGTIME ===========

RunPeriodControl:DaylightSavingTime,
    2nd Sunday in March,     !- Start Date
    1st Sunday in November;  !- End Date


!-   ===========  ALL OBJECTS IN CLASS: SITE:GROUNDTEMPERATURE:BUILDINGSURFACE ===========

Site:GroundTemperature:BuildingSurface,19.71,19.71,19.82,20.06,20.41,22.58,23.24,23.40,23.34,21.19,20.41,19.97;

!-   ===========  ALL OBJECTS IN CLASS: SITE:WATERMAINSTEMPERATURE ===========


Site:WaterMainsTemperature,
    Correlation,             !- Calculation Method
    ,                        !- Temperature Schedule Name
    9.75,                    !- Annual Average Outdoor Air Temperature {C}
    28.14;                   !- Maximum Difference In Monthly Average Outdoor Air Temperatures {deltaC}


!-   ===========  ALL OBJECTS IN CLASS: SCHEDULETYPELIMITS ===========

ScheduleTypeLimits,
    Any Number;              !- Name

ScheduleTypeLimits,
    Fraction,                !- Name
    0.0,                     !- Lower Limit Value
    1.0,                     !- Upper Limit Value
    Continuous;              !- Numeric Type

ScheduleTypeLimits,
    Temperature,             !- Name
    -60,                     !- Lower Limit Value
    200,                     !- Upper Limit Value
    Continuous;              !- Numeric Type

ScheduleTypeLimits,
    On/Off,                  !- Name
    0,                       !- Lower Limit Value
    1,                       !- Upper Limit Value
    Discrete;                !- Numeric Type

ScheduleTypeLimits,
    Control Type,            !- Name
    0,                       !- Lower Limit Value
    4,                       !- Upper Limit Value
    Discrete;                !- Numeric Type

ScheduleTypeLimits,
    Humidity,                !- Name
    10,                      !- Lower Limit Value
    90,                      !- Upper Limit Value
    Continuous;              !- Numeric Type

ScheduleTypeLimits,
    Number;                  !- Name


!-   ===========  ALL OBJECTS IN CLASS: SCHEDULE:COMPACT ===========

Schedule:Compact,
    WORK EFF SCH,            !- Name
    Fraction,                !- Schedule Type Limits Name
    Through: 12/31,          !- Field 1
    For: AllDays,            !- Field 2
    Until: 24:00, 0.0;       !- Field 4

Schedule:Compact,
    AIR VELO SCH,            !- Name
    Any Number,              !- Schedule Type Limits Name
    Through: 12/31,          !- Field 1
    For: AllDays,            !- Field 2
    Until: 24:00, 0.2;       !- Field 4

Schedule:Compact,
    CLOTHING SCH,            !- Name
    Any Number,              !- Schedule Type Limits Name
    Through: 04/30,          !- Field 1
    For: AllDays,            !- Field 2
    Until: 24:00, 1.0,       !- Field 4
    Through: 09/30,          !- Field 5
    For: AllDays,            !- Field 6
    Until: 24:00, 0.5,       !- Field 8
    Through: 12/31,          !- Field 9
    For: AllDays,            !- Field 10
    Until: 24:00, 1.0;       !- Field 12

Schedule:Compact,
    Reheat Coil Availability,!- Name
    Fraction,                !- Schedule Type Limits Name
    Through: 12/31,          !- Field 1
    For: AllDays,            !- Field 2
    Until: 24:00, 0.0;       !- Field 4

Schedule:Compact,
    HVACOperationSchd,       !- Name
    On/Off,                  !- Schedule Type Limits Name
    Through: 12/31,          !- Field 1
    For: Weekdays,           !- Field 2
    Until: 06:00, 1,         !- Field 4
    Until: 18:00, 1,         !- Field 6
    Until: 24:00, 1,         !- Field 8
    For: SummerDesignDay,    !- Field 9
    Until: 05:00, 1,         !- Field 11
    Until: 18:00, 1,         !- Field 13
    Until: 24:00, 1,         !- Field 15
    For: WinterDesignDay,    !- Field 16
    Until: 05:00, 1,         !- Field 18
    Until: 18:00, 1,         !- Field 20
    Until: 24:00, 1,         !- Field 22
    For: Saturday Sunday Holidays AllOtherDays,  !- Field 23
    Until: 24:00, 1;         !- Field 25

Schedule:Compact,
    BLDG LIGHT SCH,          !- Name
    Fraction,                !- Schedule Type Limits Name
    Through: 12/31,          !- Field 1
    For: Weekdays,           !- Field 2
    Until: 5:00, 0,          !- Field 4
    Until: 6:00, 0,          !- Field 6
    Until: 7:00, 0,          !- Field 8
    Until: 8:00, 0,          !- Field 10
    Until: 17:00, 0,         !- Field 12
    Until: 18:00, 0,         !- Field 14
    Until: 20:00, 0,         !- Field 16
    Until: 22:00, 0,         !- Field 18
    Until: 24:00, 0,         !- Field 20
    For: SummerDesignDay,    !- Field 21
    Until: 24:00, 1,         !- Field 23
    For: Saturday,           !- Field 24
    Until: 6:00, 0,          !- Field 26
    Until: 8:00, 0,          !- Field 28
    Until: 12:00, 0,         !- Field 30
    Until: 17:00, 0,         !- Field 32
    Until: 19:00, 0,         !- Field 34
    Until: 24:00, 0,         !- Field 36
    For: WinterDesignDay,    !- Field 37
    Until: 24:00, 0,         !- Field 39
    For: Sunday Holidays AllOtherDays,  !- Field 40
    Until: 6:00, 0,          !- Field 42
    Until: 18:00, 0,         !- Field 44
    Until: 24:00, 0;         !- Field 46

Schedule:Compact,
    BLDG LIGHT SCH bak,      !- Name
    Fraction,                !- Schedule Type Limits Name
    Through: 12/31,          !- Field 1
    For: Weekdays,           !- Field 2
    Until: 5:00, 0.5,        !- Field 4
    Until: 6:00, 0.7,        !- Field 6
    Until: 7:00, 0.8,        !- Field 8
    Until: 8:00, 0.9,        !- Field 10
    Until: 17:00, 1.0,       !- Field 12
    Until: 18:00, 0.9,       !- Field 14
    Until: 20:00, 0.8,       !- Field 16
    Until: 22:00, 0.7,       !- Field 18
    Until: 24:00, 0.5,       !- Field 20
    For: SummerDesignDay,    !- Field 21
    Until: 24:00, 1,         !- Field 23
    For: Saturday,           !- Field 24
    Until: 6:00, 0.05,       !- Field 26
    Until: 8:00, 0.090560114,!- Field 28
    Until: 12:00, 0.271680342,
                             !- Field 30
    Until: 17:00, 0.135840171,
                             !- Field 32
    Until: 19:00, 0.045280057,
                             !- Field 34
    Until: 24:00, 0.05,      !- Field 36
    For: WinterDesignDay,    !- Field 37
    Until: 24:00, 0,         !- Field 39
    For: Sunday Holidays AllOtherDays,  !- Field 40
    Until: 6:00, 0.05,       !- Field 42
    Until: 18:00, 0.045280057,
                             !- Field 44
    Until: 24:00, 0.05;      !- Field 46

Schedule:Compact,
    OLD BLDG EQUIP SCH,      !- Name
    Fraction,                !- Schedule Type Limits Name
    Through: 12/31,          !- Field 1
    For: Weekdays,           !- Field 2
    Until: 06:00, 0.3,       !- Field 4
    Until: 08:00, 0.4,       !- Field 6
    Until: 12:00, 0.9,       !- Field 8
    Until: 13:00, 0.8,       !- Field 10
    Until: 17:00, 0.9,       !- Field 12
    Until: 17:30, 0.8,       !- Field 14
    Until: 18:00, 0.7,       !- Field 16
    Until: 24:00, 0.3,       !- Field 18
    For: SummerDesignDay,    !- Field 19
    Until: 24:00, 1.0,       !- Field 21
    For: Saturday,           !- Field 22
    Until: 06:00, 0.2,       !- Field 24
    Until: 08:00, 0.4,       !- Field 26
    Until: 12:00, 0.5,       !- Field 28
    Until: 17:00, 0.3,       !- Field 30
    Until: 19:00, 0.3,       !- Field 32
    Until: 24:00, 0.2,       !- Field 34
    For: WinterDesignDay,    !- Field 35
    Until: 24:00, 0.0,       !- Field 37
    For: Sunday Holidays AllOtherDays,  !- Field 38
    Until: 06:00, 0.2,       !- Field 40
    Until: 18:00, 0.3,       !- Field 42
    Until: 24:00, 0.2;       !- Field 44

Schedule:Compact,
    BLDG EQUIP SCH,          !- Name
    Fraction,                !- Schedule Type Limits Name
    Through: 12/31,          !- Field 1
    For: Weekdays,           !- Field 2
    Until: 06:00, 0.48,      !- Field 4
    Until: 18:00, 0.55,      !- Field 6
    Until: 24:00, 0.48,      !- Field 8
    For: SummerDesignDay,    !- Field 9
    Until: 24:00, 1.0,       !- Field 11
    For: Saturday,           !- Field 12
    Until: 24:00, 0.2,       !- Field 14
    For: WinterDesignDay,    !- Field 15
    Until: 24:00, 0.0,       !- Field 17
    For: Sunday Holidays AllOtherDays,  !- Field 18
    Until: 24:00, 0.2;       !- Field 20

Schedule:Compact,
    BLDG OCC SCH,            !- Name
    Fraction,                !- Schedule Type Limits Name
    Through: 12/31,          !- Field 1
    For: Weekdays,           !- Field 2
    Until: 06:00, 0.0,       !- Field 4
    Until: 07:00, 0.2,       !- Field 6
    Until: 08:00, 0.6,       !- Field 8
    Until: 15:00, 0.95,      !- Field 10
    Until: 16:00, 0.8,       !- Field 12
    Until: 17:00, 0.5,       !- Field 14
    Until: 18:00, 0.3,       !- Field 16
    Until: 22:00, 0.1,       !- Field 18
    Until: 24:00, 0.05,      !- Field 20
    For: SummerDesignDay,    !- Field 21
    Until: 06:00, 0.0,       !- Field 23
    Until: 22:00, 1.0,       !- Field 25
    Until: 24:00, 0.05,      !- Field 27
    For: Saturday,           !- Field 28
    Until: 06:00, 0.0,       !- Field 30
    Until: 08:00, 0.1,       !- Field 32
    Until: 12:00, 0.3,       !- Field 34
    Until: 17:00, 0.1,       !- Field 36
    Until: 19:00, 0.05,      !- Field 38
    Until: 24:00, 0.0,       !- Field 40
    For: WinterDesignDay,    !- Field 41
    Until: 24:00, 0.0,       !- Field 43
    For: Sunday Holidays AllOtherDays,  !- Field 44
    Until: 06:00, 0.0,       !- Field 46
    Until: 18:00, 0.05,      !- Field 48
    Until: 24:00, 0.0;       !- Field 50

Schedule:Compact,
    BLDG SWH SCH,            !- Name
    Fraction,                !- Schedule Type Limits Name
    Through: 12/31,          !- Field 1
    For: Weekdays SummerDesignDay,  !- Field 2
    Until: 05:00, 0.00,      !- Field 4
    Until: 06:00, 0.00,      !- Field 6
    Until: 07:00, 0.07,      !- Field 8
    Until: 08:00, 0.19,      !- Field 10
    Until: 09:00, 0.35,      !- Field 12
    Until: 10:00, 0.38,      !- Field 14
    Until: 11:00, 0.39,      !- Field 16
    Until: 12:00, 0.47,      !- Field 18
    Until: 13:00, 0.57,      !- Field 20
    Until: 14:00, 0.54,      !- Field 22
    Until: 15:00, 0.34,      !- Field 24
    Until: 16:00, 0.33,      !- Field 26
    Until: 17:00, 0.44,      !- Field 28
    Until: 18:00, 0.26,      !- Field 30
    Until: 19:00, 0.21,      !- Field 32
    Until: 20:00, 0.15,      !- Field 34
    Until: 21:00, 0.17,      !- Field 36
    Until: 22:00, 0.08,      !- Field 38
    Until: 24:00, 0.05,      !- Field 40
    For: Saturday WinterDesignDay,  !- Field 41
    Until: 05:00, 0.00,      !- Field 43
    Until: 06:00, 0.00,      !- Field 45
    Until: 07:00, 0.07,      !- Field 47
    Until: 08:00, 0.11,      !- Field 49
    Until: 09:00, 0.15,      !- Field 51
    Until: 10:00, 0.21,      !- Field 53
    Until: 11:00, 0.19,      !- Field 55
    Until: 12:00, 0.23,      !- Field 57
    Until: 13:00, 0.20,      !- Field 59
    Until: 14:00, 0.19,      !- Field 61
    Until: 15:00, 0.15,      !- Field 63
    Until: 16:00, 0.13,      !- Field 65
    Until: 17:00, 0.14,      !- Field 67
    Until: 21:00, 0.07,      !- Field 69
    Until: 22:00, 0.09,      !- Field 71
    Until: 24:00, 0.05,      !- Field 73
    For: Sunday Holidays AllOtherDays,  !- Field 74
    Until: 06:00, 0.00,      !- Field 76
    Until: 07:00, 0.07,      !- Field 78
    Until: 11:00, 0.04,      !- Field 80
    Until: 13:00, 0.06,      !- Field 82
    Until: 14:00, 0.09,      !- Field 84
    Until: 15:00, 0.06,      !- Field 86
    Until: 21:00, 0.04,      !- Field 88
    Until: 22:00, 0.07,      !- Field 90
    Until: 24:00, 0.04;      !- Field 92

Schedule:Compact,
    ACTIVITY SCH,            !- Name
    Any Number,              !- Schedule Type Limits Name
    Through: 12/31,          !- Field 1
    For: AllDays,            !- Field 2
    Until: 24:00, 120.;      !- Field 4

Schedule:Compact,
    MinOA MotorizedDamper Sched,  !- Name
    Fraction,                !- Schedule Type Limits Name
    Through: 12/31,          !- Field 1
    For: Weekdays SummerDesignDay,  !- Field 2
    Until: 06:00, 0.0,       !- Field 4
    Until: 18:00, 1.0,       !- Field 6
    Until: 24:00, 0.0,       !- Field 8
    For: Saturday WinterDesignDay,  !- Field 9
    Until: 05:00, 0.0,       !- Field 11
    Until: 18:00, 0,         !- Field 13
    Until: 24:00, 0.0,       !- Field 15
    For: Sunday Holidays AllOtherDays,  !- Field 16
    Until: 24:00, 0.0;       !- Field 18

Schedule:Compact,
    Dual Zone Control Type Sched,  !- Name
    Control Type,            !- Schedule Type Limits Name
    Through: 12/31,          !- Field 1
    For: AllDays,            !- Field 2
    Until: 24:00, 4;         !- Field 4

Schedule:Compact,
    INFIL SCH PNNL,          !- Name
    Fraction,                !- Schedule Type Limits Name
    Through: 12/31,          !- Field 1
    For: Weekdays SummerDesignDay,  !- Field 2
    Until: 06:00, 1.0,       !- Field 4
    Until: 18:00, 0.25,      !- Field 6
    Until: 24:00, 1.0,       !- Field 8
    For: Saturday WinterDesignDay,  !- Field 9
    Until: 06:00, 1.0,       !- Field 11
    Until: 18:00, 0.25,      !- Field 13
    Until: 24:00, 1.0,       !- Field 15
    For: Sunday Holidays AllOtherDays,  !- Field 16
    Until: 24:00, 1.0;       !- Field 18

Schedule:Compact,
    CW-Loop-Temp-Schedule,   !- Name
    Temperature,             !- Schedule Type Limits Name
    Through: 12/31,          !- Field 1
    For: AllDays,            !- Field 2
    Until: 24:00, 6.44;      !- Field 4

! 82;                      !- Field 4
Schedule:Compact,
    HW-Loop-Temp-Schedule,   !- Name
    Temperature,             !- Schedule Type Limits Name
    Through: 12/31,          !- Field 1
    For: AllDays,            !- Field 2
    Until: 24:00, 60;        !- Field 4

Schedule:Compact,
    FrontEntry FanSched,     !- Name
    Fraction,                !- Schedule Type Limits Name
    Through: 12/31,          !- Field 1
    For: AllDays,            !- Field 2
    Until: 24:00, 1.0;       !- Field 4

Schedule:Compact,
    FrontEntry CoilSched,    !- Name
    Fraction,                !- Schedule Type Limits Name
    Through: 12/31,          !- Field 1
    For: AllDays,            !- Field 2
    Until: 24:00, 1.0;       !- Field 4

Schedule:Compact,
    PlantOnSched,            !- Name
    On/Off,                  !- Schedule Type Limits Name
    Through: 12/31,          !- Field 1
    For: AllDays,            !- Field 2
    Until: 24:00, 1;         !- Field 4

Schedule:Compact,
    HTGSETP SCH,             !- Name
    Temperature,             !- Schedule Type Limits Name
    Through: 12/31,          !- Field 1
    For: alldays,            !- Field 2
    Until: 04:00, 15.6,      !- Field 4
    Until: 05:00, 15.6,      !- Field 6
    Until: 06:00, 15.6,      !- Field 8
    Until: 22:00, 15.6,      !- Field 10
    Until: 24:00, 15.6;      !- Field 12

Schedule:Compact,
    CLGSETP SCH ConstantOn,  !- Name
    Temperature,             !- Schedule Type Limits Name
    Through: 12/31,          !- Field 1
    For: AllDays,            !- Field 2
    Until: 24:00, 21.11;     !- Field 4

Schedule:Compact,
    CLGSETP SCH,             !- Name
    Temperature,             !- Schedule Type Limits Name
    Through: 12/31,          !- Field 1
    For: Weekdays SummerDesignDay,  !- Field 2
    Until: 05:00, 21.11,        !- Field 4
    Until: 06:00, 21.11,        !- Field 6
    Until: 18:00, 21.11,     !- Field 8
    Until: 24:00, 21.11,        !- Field 10
    For: AllOtherDays,       !- Field 11
    Until: 24:00, 21.11;      !- Field 13

Schedule:Compact,
    CLGTEMPSETPOINT,         !- Name
    Temperature,             !- Schedule Type Limits Name
    Through: 12/31,          !- Field 1
    For: Weekdays SummerDesignDay,  !- Field 2
    Until: 05:00, 21.11,        !- Field 4
    Until: 06:00, 21.11,        !- Field 6
    Until: 18:00, 21.11,     !- Field 8
    Until: 24:00, 21.11,        !- Field 10
    For: AllOtherDays,       !- Field 11
    Until: 24:00, 21.11;      !- Field 13

Schedule:Compact,
    FCU-CLGSETP SCH,         !- Name
    Temperature,             !- Schedule Type Limits Name
    Through: 12/31,          !- Field 1
    For: alldays,            !- Field 2
    Until: 04:00, 26,        !- Field 4
    Until: 06:00, 24,        !- Field 6
    Until: 18:00, 22,        !- Field 8
    Until: 24:00, 26;        !- Field 10

Schedule:Compact,
    PLANT LOOP HIGH TEMP SCHEDULE,  !- Name
    Temperature,             !- Schedule Type Limits Name
    Through: 12/31,          !- Field 1
    For: Alldays,            !- Field 2
    Until: 24:00, 18.33;     !- Field 4

Schedule:Compact,
    PLANT LOOP LOW TEMP SCHEDULE,  !- Name
    Temperature,             !- Schedule Type Limits Name
    Through: 12/31,          !- Field 1
    For: Alldays,            !- Field 2
    Until: 24:00, 5;         !- Field 4

Schedule:Compact,
    OLD BLDG ControlRoom EQUIP SCH,  !- Name
    Fraction,                !- Schedule Type Limits Name
    Through: 12/31,          !- Field 1
    For: Weekdays,           !- Field 2
    Until: 06:00, .7,        !- Field 4
    Until: 08:00, .7,        !- Field 6
    Until: 12:00, 0.9,       !- Field 8
    Until: 13:00, 0.7,       !- Field 10
    Until: 16:00, 0.9,       !- Field 12
    Until: 17:00, 0.8,       !- Field 14
    Until: 18:00, 0.7,       !- Field 16
    Until: 24:00, .7,        !- Field 18
    For: SummerDesignDay,    !- Field 19
    Until: 24:00, 1.0,       !- Field 21
    For: Saturday,           !- Field 22
    Until: 24:00, 0.7,       !- Field 24
    For: WinterDesignDay,    !- Field 25
    Until: 24:00, 0.0,       !- Field 27
    For: Sunday Holidays AllOtherDays,  !- Field 28
    Until: 24:00, 0.7;       !- Field 30

Schedule:Compact,
    BLDG ControlRoom EQUIP SCH,  !- Name
    Fraction,                !- Schedule Type Limits Name
    Through: 12/31,          !- Field 1
    For: Weekdays,           !- Field 2
    Until: 24:00, .48,       !- Field 4
    For: SummerDesignDay,    !- Field 5
    Until: 24:00, 1.0,       !- Field 7
    For: Saturday,           !- Field 8
    Until: 24:00, 0.48,      !- Field 10
    For: WinterDesignDay,    !- Field 11
    Until: 24:00, 0.0,       !- Field 13
    For: Sunday Holidays AllOtherDays,  !- Field 14
    Until: 24:00, 0.48;      !- Field 16

Schedule:Compact,
    Seasonal-Reset-Supply-Air-Temp-Sch,  !- Name
    Temperature,             !- Schedule Type Limits Name
    Through: 12/31,          !- Field 1
    For: AllDays,            !- Field 2
    Until: 24:00, 13.0;      !- Field 4

Schedule:Compact,
    CLGSETP SCH Base ExtendedHVAC2,  !- Name
    Temperature,             !- Schedule Type Limits Name
    Through: 12/31,          !- Field 1
    For: alldays,            !- Field 2
    Until: 04:00, 26,        !- Field 4
    Until: 06:00, 24,        !- Field 6
    Until: 18:00, 22,        !- Field 8
    Until: 24:00, 26;        !- Field 10

Schedule:Compact,
    CLGSETP SCH Base ExtendedHVAC3,  !- Name
    Temperature,             !- Schedule Type Limits Name
    Through: 12/31,          !- Field 1
    For: alldays,            !- Field 2
    Until: 04:00, 26,        !- Field 4
    Until: 06:00, 24,        !- Field 6
    Until: 18:00, 22,        !- Field 8
    Until: 24:00, 26;        !- Field 10

Schedule:Compact,
    CLGSETP SCH Base ExtendedHVAC,  !- Name
    Temperature,             !- Schedule Type Limits Name
    Through: 12/31,          !- Field 1
    For: alldays,            !- Field 2
    Until: 04:00, 26,        !- Field 4
    Until: 06:00, 24,        !- Field 6
    Until: 18:00, 22,        !- Field 8
    Until: 24:00, 26;        !- Field 10


!-   ===========  ALL OBJECTS IN CLASS: SCHEDULE:CONSTANT ===========

Schedule:Constant,DR Response,On/Off,0;
Schedule:Constant,CPP Event,On/Off,0;
Schedule:Constant,DutyCycleTimestepCount,Number,1;
Schedule:Constant,PreviousFlow1,Any Number,1;
Schedule:Constant,PreviousFlow2,Any Number,1;
Schedule:Constant,ALWAYS ON,Any Number,1;
Schedule:Constant,HVAC Schedule Rest of the Building,Any Number,0;

!-   ===========  ALL OBJECTS IN CLASS: MATERIAL ===========


Material,
    G01 13mm gypsum board,   !- Name
    Smooth,                  !- Roughness
    0.0127,                  !- Thickness {m}
    0.1600,                  !- Conductivity {W/m-K}
    800.0000,                !- Density {kg/m3}
    1090.0000,               !- Specific Heat {J/kg-K}
    0.9000,                  !- Thermal Absorptance
    0.7000,                  !- Solar Absorptance
    0.5000;                  !- Visible Absorptance

Material,
    200mm Normalweight concrete wall,  !- Name
    MediumRough,             !- Roughness
    0.2032,                  !- Thickness {m}
    2.31,                    !- Conductivity {W/m-K}
    2322,                    !- Density {kg/m3}
    832;                     !- Specific Heat {J/kg-K}

Material,
    F13 Built-up roofing,    !- Name
    Rough,                   !- Roughness
    0.2,                     !- Thickness {m}