!-Generator IDFEditor 1.48
!-Option SortedOrder UseSpecialFormat

!-NOTE: All comments with '!-' are ignored by the IDFEditor and are generated automatically.
!-      Use '!' comments if they need to be retained when using the IDFEditor.


!-   ===========  ALL OBJECTS IN CLASS: VERSION ===========

Version,8.5;

!-   ===========  ALL OBJECTS IN CLASS: SIMULATIONCONTROL ===========


SimulationControl,
    Yes,                     !- Do Zone Sizing Calculation
    Yes,                     !- Do System Sizing Calculation
    Yes,                     !- Do Plant Sizing Calculation
    No,                      !- Run Simulation for Sizing Periods
    Yes;                     !- Run Simulation for Weather File Run Periods


!-   ===========  ALL OBJECTS IN CLASS: BUILDING ===========

Building,
    Battelle Shipping and Recieving Warehouse (BRSW),  !- Name
    0.0,                     !- North Axis {deg}
    City,                    !- Terrain
    0.04,                    !- Loads Convergence Tolerance Value
    0.4,                     !- Temperature Convergence Tolerance Value {deltaC}
    FullInteriorAndExterior, !- Solar Distribution
    25,                      !- Maximum Number of Warmup Days
    ;                        !- Minimum Number of Warmup Days


!-   ===========  ALL OBJECTS IN CLASS: TIMESTEP ===========

Timestep,60;

!-   ===========  ALL OBJECTS IN CLASS: SITE:LOCATION ===========


Site:Location,
    Richland WA,             !- Name
    46.34,                   !- Latitude {deg}
    -119.27,                 !- Longitude {deg}
    -8,                      !- Time Zone {hr}
    100;                     !- Elevation {m}


!-   ===========  ALL OBJECTS IN CLASS: SIZINGPERIOD:DESIGNDAY ===========

SizingPeriod:DesignDay,
    Pasco Ann Htg 99.6% Condns DB,  !- Name
    12,                      !- Month
    21,                      !- Day of Month
    WinterDesignDay,         !- Day Type
    -14,                     !- Maximum Dry-Bulb Temperature {C}
    0.0,                     !- Daily Dry-Bulb Temperature Range {deltaC}
    DefaultMultipliers,      !- Dry-Bulb Temperature Range Modifier Type
    ,                        !- Dry-Bulb Temperature Range Modifier Day Schedule Name
    Wetbulb,                 !- Humidity Condition Type
    -14,                     !- Wetbulb or DewPoint at Maximum Dry-Bulb {C}
    ,                        !- Humidity Condition Day Schedule Name
    ,                        !- Humidity Ratio at Maximum Dry-Bulb {kgWater/kgDryAir}
    ,                        !- Enthalpy at Maximum Dry-Bulb {J/kg}
    ,                        !- Daily Wet-Bulb Temperature Range {deltaC}
    99702.,                  !- Barometric Pressure {Pa}
    2.5,                     !- Wind Speed {m/s}
    310,                     !- Wind Direction {deg}
    No,                      !- Rain Indicator
    No,                      !- Snow Indicator
    No,                      !- Daylight Saving Time Indicator
    ASHRAEClearSky,          !- Solar Model Indicator
    ,                        !- Beam Solar Day Schedule Name
    ,                        !- Diffuse Solar Day Schedule Name
    ,                        !- ASHRAE Clear Sky Optical Depth for Beam Irradiance (taub) {dimensionless}
    ,                        !- ASHRAE Clear Sky Optical Depth for Diffuse Irradiance (taud) {dimensionless}
    0.00;                    !- Sky Clearness

! Pasco Annual Cooling Design Conditions Wind Speed=3.1m/s Wind Dir=330
! Hottest Month=JUL
! Pasco WA USA Annual Cooling (DB=>MWB) .4%, MaxDB=37.5°C MWB=21.1°C
SizingPeriod:DesignDay,
    Pasco Ann Clg .4% Condns DB=>MWB,  !- Name
    7,                       !- Month
    21,                      !- Day of Month
    SummerDesignDay,         !- Day Type
    37.5,                    !- Maximum Dry-Bulb Temperature {C}
    17.8,                    !- Daily Dry-Bulb Temperature Range {deltaC}
    DefaultMultipliers,      !- Dry-Bulb Temperature Range Modifier Type
    ,                        !- Dry-Bulb Temperature Range Modifier Day Schedule Name
    Wetbulb,                 !- Humidity Condition Type
    21.1,                    !- Wetbulb or DewPoint at Maximum Dry-Bulb {C}
    ,                        !- Humidity Condition Day Schedule Name
    ,                        !- Humidity Ratio at Maximum Dry-Bulb {kgWater/kgDryAir}
    ,                        !- Enthalpy at Maximum Dry-Bulb {J/kg}
    ,                        !- Daily Wet-Bulb Temperature Range {deltaC}
    99702.,                  !- Barometric Pressure {Pa}
    3.1,                     !- Wind Speed {m/s}
    330,                     !- Wind Direction {deg}
    No,                      !- Rain Indicator
    No,                      !- Snow Indicator
    No,                      !- Daylight Saving Time Indicator
    ASHRAETau,               !- Solar Model Indicator
    ,                        !- Beam Solar Day Schedule Name
    ,                        !- Diffuse Solar Day Schedule Name
    0.398,                   !- ASHRAE Clear Sky Optical Depth for Beam Irradiance (taub) {dimensionless}
    2.219;                   !- ASHRAE Clear Sky Optical Depth for Diffuse Irradiance (taud) {dimensionless}


!-   ===========  ALL OBJECTS IN CLASS: RUNPERIOD ===========

RunPeriod,
    Annual,                  !- Name
    8,                       !- Begin Month
    1,                       !- Begin Day of Month
    8,                       !- End Month
    2,                       !- End Day of Month
    UseWeatherFile,          !- Day of Week for Start Day
    Yes,                     !- Use Weather File Holidays and Special Days
    Yes,                     !- Use Weather File Daylight Saving Period
    No,                      !- Apply Weekend Holiday Rule
    Yes,                     !- Use Weather File Rain Indicators
    Yes,                     !- Use Weather File Snow Indicators
    1,                       !- Number of Times Runperiod to be Repeated
    Yes;                     !- Increment Day of Week on repeat


!-   ===========  ALL OBJECTS IN CLASS: RUNPERIODCONTROL:SPECIALDAYS ===========

RunPeriodControl:SpecialDays,
    New Years Day,           !- Name
    January 1,               !- Start Date
    1,                       !- Duration {days}
    Holiday;                 !- Special Day Type

RunPeriodControl:SpecialDays,
    Veterans Day,            !- Name
    November 11,             !- Start Date
    1,                       !- Duration {days}
    Holiday;                 !- Special Day Type

RunPeriodControl:SpecialDays,
    Christmas,               !- Name
    December 25,             !- Start Date
    1,                       !- Duration {days}
    Holiday;                 !- Special Day Type

RunPeriodControl:SpecialDays,
    Independence Day,        !- Name
    July 4,                  !- Start Date
    1,                       !- Duration {days}
    Holiday;                 !- Special Day Type

RunPeriodControl:SpecialDays,
    MLK Day,                 !- Name
    3rd Monday in January,   !- Start Date
    1,                       !- Duration {days}
    Holiday;                 !- Special Day Type

RunPeriodControl:SpecialDays,
    Presidents Day,          !- Name
    3rd Monday in February,  !- Start Date
    1,                       !- Duration {days}
    Holiday;                 !- Special Day Type

RunPeriodControl:SpecialDays,
    Memorial Day,            !- Name
    Last Monday in May,      !- Start Date
    1,                       !- Duration {days}
    Holiday;                 !- Special Day Type

RunPeriodControl:SpecialDays,
    Labor Day,               !- Name
    1st Monday in September, !- Start Date
    1,                       !- Duration {days}
    Holiday;                 !- Special Day Type

RunPeriodControl:SpecialDays,
    Columbus Day,            !- Name
    2nd Monday in October,   !- Start Date
    1,                       !- Duration {days}
    Holiday;                 !- Special Day Type

RunPeriodControl:SpecialDays,
    Thanksgiving,            !- Name
    4th Thursday in November,!- Start Date
    1,                       !- Duration {days}
    Holiday;                 !- Special Day Type


!-   ===========  ALL OBJECTS IN CLASS: RUNPERIODCONTROL:DAYLIGHTSAVINGTIME ===========

! Daylight Saving Period in US
RunPeriodControl:DaylightSavingTime,
    2nd Sunday in March,     !- Start Date
    1st Sunday in November;  !- End Date


!-   ===========  ALL OBJECTS IN CLASS: SITE:GROUNDTEMPERATURE:BUILDINGSURFACE ===========

Site:GroundTemperature:BuildingSurface,19.71,19.71,19.82,20.06,20.41,22.58,23.24,23.40,23.34,21.19,20.41,19.97;

!-   ===========  ALL OBJECTS IN CLASS: SCHEDULETYPELIMITS ===========


!
!
!
! Site:GroundTemperature:BuildingSurface,
!     19.71,                   !- January Ground Temperature {C}
!     19.71,                   !- February Ground Temperature {C}
!     19.82,                   !- March Ground Temperature {C}
!     20.06,                   !- April Ground Temperature {C}
!     20.41,                   !- May Ground Temperature {C}
!     22.58,                   !- June Ground Temperature {C}
!     23.24,                   !- July Ground Temperature {C}
!     23.40,                   !- August Ground Temperature {C}
!     23.34,                   !- September Ground Temperature {C}
!     21.19,                   !- October Ground Temperature {C}
!     20.41,                   !- November Ground Temperature {C}
!     19.97;                   !- December Ground Temperature {C}
ScheduleTypeLimits,
    Any Number;              !- Name

ScheduleTypeLimits,
    Fraction,                !- Name
    0.0,                     !- Lower Limit Value
    1.0,                     !- Upper Limit Value
    CONTINUOUS;              !- Numeric Type

ScheduleTypeLimits,
    Temperature,             !- Name
    -60,                     !- Lower Limit Value
    200,                     !- Upper Limit Value
    CONTINUOUS;              !- Numeric Type

ScheduleTypeLimits,
    On/Off,                  !- Name
    0,                       !- Lower Limit Value
    1,                       !- Upper Limit Value
    DISCRETE;                !- Numeric Type

ScheduleTypeLimits,
    Control Type,            !- Name
    0,                       !- Lower Limit Value
    4,                       !- Upper Limit Value
    DISCRETE;                !- Numeric Type

ScheduleTypeLimits,
    Humidity,                !- Name
    10,                      !- Lower Limit Value
    90,                      !- Upper Limit Value
    CONTINUOUS;              !- Numeric Type

ScheduleTypeLimits,
    Number;                  !- Name

ScheduleTypeLimits,
    HVACTemplate Any Number; !- Name


!-   ===========  ALL OBJECTS IN CLASS: SCHEDULE:COMPACT ===========

Schedule:Compact,
    Warehouse Lights Schedule,  !- Name
    Fraction,                !- Schedule Type Limits Name
    Through: 12/31,          !- Field 1
    For: Weekdays,           !- Field 2
    Until: 05:00, 0.05,      !- Field 4
    Until: 07:00, 0.1,       !- Field 6
    Until: 07:00, 0.3,       !- Field 8
    Until: 16:00, 1,         !- Field 10
    Until: 17:00, 0.5,       !- Field 12
    Until: 20:00, .1,        !- Field 14
    Until: 22:00, .05,       !- Field 16
    Until: 23:00, .05,       !- Field 18
    Until: 24:00, 0.05,      !- Field 20
    For: SummerDesignDay,    !- Field 21
    Until: 24:00, 1.0,       !- Field 23
    For: Saturday,           !- Field 24
    Until: 06:00, 0.05,      !- Field 26
    Until: 08:00, .05,       !- Field 28
    Until: 12:00, .05,       !- Field 30
    Until: 17:00, .05,       !- Field 32
    Until: 24:00, 0.05,      !- Field 34
    For: WinterDesignDay,    !- Field 35
    Until: 24:00, 0.0,       !- Field 37
    For: Sunday Holidays AllOtherDays,  !- Field 38
    Until: 24:00, 0.05;      !- Field 40

Schedule:Compact,
    Office Equipment Schedule,  !- Name
    Fraction,                !- Schedule Type Limits Name
    Through: 12/31,          !- Field 1
    For: Weekdays,           !- Field 2
    Until: 08:00, 0.40,      !- Field 4
    Until: 12:00, 0.90,      !- Field 6
    Until: 13:00, 0.80,      !- Field 8
    Until: 17:00, 0.90,      !- Field 10
    Until: 18:00, 0.50,      !- Field 12
    Until: 24:00, 0.40,      !- Field 14
    For: SummerDesignDay,    !- Field 15
    Until: 24:00, 1.0,       !- Field 17
    For: Saturday,           !- Field 18
    Until: 06:00, 0.30,      !- Field 20
    Until: 08:00, 0.4,       !- Field 22
    Until: 12:00, 0.5,       !- Field 24
    Until: 17:00, 0.35,      !- Field 26
    Until: 24:00, 0.30,      !- Field 28
    For: WinterDesignDay,    !- Field 29
    Until: 24:00, 0.0,       !- Field 31
    For: Sunday Holidays AllOtherDays,  !- Field 32
    Until: 24:00, 0.30;      !- Field 34

Schedule:Compact,
    Office Occupancy Schedule,  !- Name
    Fraction,                !- Schedule Type Limits Name
    Through: 12/31,          !- Field 1
    For: Weekdays,           !- Field 2
    Until: 06:00, 0.0,       !- Field 4
    Until: 07:00, 0.1,       !- Field 6
    Until: 08:00, 0.2,       !- Field 8
    Until: 12:00, 0.95,      !- Field 10
    Until: 13:00, 0.5,       !- Field 12
    Until: 17:00, 0.95,      !- Field 14
    Until: 18:00, 0.3,       !- Field 16
    Until: 20:00, 0.1,       !- Field 18
    Until: 24:00, 0.05,      !- Field 20
    For: SummerDesignDay,    !- Field 21
    Until: 06:00, 0.0,       !- Field 23
    Until: 22:00, 1.0,       !- Field 25
    Until: 24:00, 0.05,      !- Field 27
    For: Saturday,           !- Field 28
    Until: 06:00, 0.0,       !- Field 30
    Until: 08:00, 0.1,       !- Field 32
    Until: 12:00, 0.3,       !- Field 34
    Until: 17:00, 0.1,       !- Field 36
    Until: 19:00, 0.0,       !- Field 38
    Until: 24:00, 0.0,       !- Field 40
    For: WinterDesignDay,    !- Field 41
    Until: 24:00, 0.0,       !- Field 43
    For: Sunday Holidays AllOtherDays,  !- Field 44
    Until: 06:00, 0.0,       !- Field 46
    Until: 18:00, 0.0,       !- Field 48
    Until: 24:00, 0.0;       !- Field 50

Schedule:Compact,
    Infiltration Schedule,   !- Name
    Fraction,                !- Schedule Type Limits Name
    Through: 12/31,          !- Field 1
    For: Weekdays SummerDesignDay,  !- Field 2
    Until: 06:00, 1.0,       !- Field 4
    Until: 22:00, 0.0,       !- Field 6
    Until: 24:00, 1.0,       !- Field 8
    For: Saturday WinterDesignDay,  !- Field 9
    Until: 06:00, 1.0,       !- Field 11
    Until: 18:00, 0.0,       !- Field 13
    Until: 24:00, 1.0,       !- Field 15
    For: Sunday Holidays AllOtherDays,  !- Field 16
    Until: 24:00, 1.0;       !- Field 18

Schedule:Compact,
    Infiltration Half On Schedule,  !- Name
    Fraction,                !- Schedule Type Limits Name
    Through: 12/31,          !- Field 1
    For: Weekdays SummerDesignDay,  !- Field 2
    Until: 06:00, 1.0,       !- Field 4
    Until: 22:00, 0.5,       !- Field 6
    Until: 24:00, 1.0,       !- Field 8
    For: Saturday WinterDesignDay,  !- Field 9
    Until: 06:00, 1.0,       !- Field 11
    Until: 18:00, 0.5,       !- Field 13
    Until: 24:00, 1.0,       !- Field 15
    For: Sunday Holidays AllOtherDays,  !- Field 16
    Until: 24:00, 1.0;       !- Field 18

Schedule:Compact,
    Infiltration Quarter On Schedule,  !- Name
    Fraction,                !- Schedule Type Limits Name
    Through: 12/31,          !- Field 1
    For: Weekdays SummerDesignDay,  !- Field 2
    Until: 06:00, 1.0,       !- Field 4
    Until: 22:00, 0.25,      !- Field 6
    Until: 24:00, 1.0,       !- Field 8
    For: Saturday WinterDesignDay,  !- Field 9
    Until: 06:00, 1.0,       !- Field 11
    Until: 18:00, 0.25,      !- Field 13
    Until: 24:00, 1.0,       !- Field 15
    For: Sunday Holidays AllOtherDays,  !- Field 16
    Until: 24:00, 1.0;       !- Field 18

Schedule:Compact,
    Always On,               !- Name
    Fraction,                !- Schedule Type Limits Name
    Through: 12/31,          !- Field 1
    For: AllDays,            !- Field 2
    Until: 24:00, 1.0;       !- Field 4

Schedule:Compact,
    Always Off,              !- Name
    Fraction,                !- Schedule Type Limits Name
    Through: 12/31,          !- Field 1
    For: AllDays,            !- Field 2
    Until: 24:00, 0.0;       !- Field 4

Schedule:Compact,
    Heating Setpoint Schedule,  !- Name
    Temperature,             !- Schedule Type Limits Name
    Through: 12/31,          !- Field 1
    For: Weekdays,           !- Field 2
    Until: 05:00, 15.6,      !- Field 4
    Until: 19:00, 21.0,      !- Field 6
    Until: 24:00, 15.6,      !- Field 8
    For SummerDesignDay,     !- Field 9
    Until: 24:00, 15.6,      !- Field 11
    For: Saturday,           !- Field 12
    Until: 06:00, 15.6,      !- Field 14
    Until: 17:00, 21.0,      !- Field 16
    Until: 24:00, 15.6,      !- Field 18
    For: WinterDesignDay,    !- Field 19
    Until: 24:00, 21.0,      !- Field 21
    For: Sunday Holidays AllOtherDays,  !- Field 22
    Until: 24:00, 15.6;      !- Field 24

Schedule:Compact,
    Cooling Setpoint Schedule,  !- Name
    Temperature,             !- Schedule Type Limits Name
    Through: 12/31,          !- Field 1
    For: Weekdays SummerDesignDay,  !- Field 2
    Until: 06:00, 30.0,      !- Field 4
    Until: 22:00, 24.0,      !- Field 6
    Until: 24:00, 30.0,      !- Field 8
    For: Saturday,           !- Field 9
    Until: 06:00, 30.0,      !- Field 11
    Until: 18:00, 24.0,      !- Field 13
    Until: 24:00, 30.0,      !- Field 15
    For WinterDesignDay,     !- Field 16
    Until: 24:00, 30.0,      !- Field 18
    For: Sunday Holidays AllOtherDays,  !- Field 19
    Until: 24:00, 30.0;      !- Field 21

Schedule:Compact,
    Office Activity Schedule,!- Name
    Any Number,              !- Schedule Type Limits Name
    Through: 12/31,          !- Field 1
    For: AllDays,            !- Field 2
    Until: 24:00, 120.;      !- Field 4

Schedule:Compact,
    Office Work Eff. Schedule,  !- Name
    Fraction,                !- Schedule Type Limits Name
    Through: 12/31,          !- Field 1
    For: AllDays,            !- Field 2
    Until: 24:00, 0.0;       !- Field 4

Schedule:Compact,
    Office Clothing Schedule,!- Name
    Any Number,              !- Schedule Type Limits Name
    Through: 04/30,          !- Field 1
    For: AllDays,            !- Field 2
    Until: 24:00, 1.0,       !- Field 4
    Through: 09/30,          !- Field 5
    For: AllDays,            !- Field 6
    Until: 24:00, 0.5,       !- Field 8
    Through: 12/31,          !- Field 9
    For: AllDays,            !- Field 10
    Until: 24:00, 1.0;       !- Field 12

Schedule:Compact,
    HVAC Operation Schedule, !- Name
    Fraction,                !- Schedule Type Limits Name
    Through: 12/31,          !- Field 1
    For: Tuesday Wednesday Thursday Friday SummerDesignDay WinterDesignDay,  !- Field 2
    Until: 04:00, 0,         !- Field 4
    Until: 16:00, 1,         !- Field 6
    Until: 24:00, 0,         !- Field 8
    For: Monday ,            !- Field 9
    Until: 02:00, 0,         !- Field 11
    Until: 16:00, 1,         !- Field 13
    Until: 24:00, 0,         !- Field 15
    For: Sunday Holidays AllOtherDays,  !- Field 16
    Until: 24:00, 0;         !- Field 18

Schedule:Compact,
    HVACTemplate-Always 4,   !- Name
    HVACTemplate Any Number, !- Schedule Type Limits Name
    Through: 12/31,          !- Field 1
    For: AllDays,            !- Field 2
    Until: 24:00, 4;         !- Field 4

Schedule:Compact,
    HVACTemplate-Always 1,   !- Name
    HVACTemplate Any Number, !- Schedule Type Limits Name
    Through: 12/31,          !- Field 1
    For: AllDays,            !- Field 2
    Until: 24:00, 1;         !- Field 4

Schedule:Compact,
    HVACTemplate-Always 0,   !- Name
    HVACTemplate Any Number, !- Schedule Type Limits Name
    Through: 12/31,          !- Field 1
    For: AllDays,            !- Field 2
    Until: 24:00, 0;         !- Field 4

Schedule:Compact,
    Other Lights Schedule,   !- Name
    Fraction,                !- Schedule Type Limits Name
    Through: 12/31,          !- Field 1
    For: Weekdays,           !- Field 2
    Until: 05:00, 0.05,      !- Field 4
    Until: 07:00, 0.1,       !- Field 6
    Until: 07:00, 0.3,       !- Field 8
    Until: 16:00, .5,        !- Field 10
    Until: 17:00, .4,        !- Field 12
    Until: 20:00, .1,        !- Field 14
    Until: 22:00, .05,       !- Field 16
    Until: 23:00, .05,       !- Field 18
    Until: 24:00, 0.05,      !- Field 20
    For: SummerDesignDay,    !- Field 21
    Until: 24:00, 1.0,       !- Field 23
    For: Saturday,           !- Field 24
    Until: 06:00, 0.05,      !- Field 26
    Until: 08:00, .05,       !- Field 28
    Until: 12:00, .05,       !- Field 30
    Until: 17:00, .05,       !- Field 32
    Until: 24:00, 0.05,      !- Field 34
    For: WinterDesignDay,    !- Field 35
    Until: 24:00, 0.0,       !- Field 37
    For: Sunday Holidays AllOtherDays,  !- Field 38
    Until: 24:00, 0.05;      !- Field 40


!-   ===========  ALL OBJECTS IN CLASS: SCHEDULE:CONSTANT ===========

Schedule:Constant,Heating Thermostat 1,Temperature,19.11;
Schedule:Constant,Cooling Thermostat 1,Temperature,22.22;
Schedule:Constant,Heating Thermostat 2,Temperature,19.22;
Schedule:Constant,Cooling Thermostat 2,Temperature,23.33;
Schedule:Constant,Heating Thermostat 3,Temperature,19.33;
Schedule:Constant,Cooling Thermostat 3,Temperature,24.44;
Schedule:Constant,Cooling Coil Enable,On/Off,1;
Schedule:Constant,Heating Coil Enable,On/Off,1;
Schedule:Constant,Cycle1,On/Off,1;
Schedule:Constant,Cycle2,On/Off,1;
Schedule:Constant,Cycle3,On/Off,1;
Schedule:Constant,Cycle4,On/Off,1;
Schedule:Constant,Cycle5,On/Off,1;
Schedule:Constant,CSP1_act,Temperature,22.22;
Schedule:Constant,CSP2_act,Temperature,23.33;
Schedule:Constant,CSP3_act,Temperature,23.33;
Schedule:Constant,CSP4_act,Temperature,24.44;
Schedule:Constant,CSP5_act,Temperature,24.44;

!-   ===========  ALL OBJECTS IN CLASS: MATERIAL ===========


Material,
    F08 Metal surface,       !- Name
    Smooth,                  !- Roughness
    0.0008,                  !- Thickness {m}
    45.28,                   !- Conductivity {W/m-K}
    7824,                    !- Density {kg/m3}
    500;                     !- Specific Heat {J/kg-K}

Material,
    I01 25mm insulation board,  !- Name
    MediumRough,             !- Roughness
    0.0254,                  !- Thickness {m}
    0.03,                    !- Conductivity {W/m-K}
    43,                      !- Density {kg/m3}
    1210;                    !- Specific Heat {J/kg-K}

Material,
    I02 50mm insulation board,  !- Name
    MediumRough,             !- Roughness
    0.0508,                  !- Thickness {m}
    0.03,                    !- Conductivity {W/m-K}
    43,                      !- Density {kg/m3}
    1210;                    !- Specific Heat {J/kg-K}

Material,
    G01a 19mm gypsum board,  !- Name
    MediumSmooth,            !- Roughness
    0.019,                   !- Thickness {m}
    0.16,                    !- Conductivity {W/m-K}
    800,                     !- Density {kg/m3}
    1090;                    !- Specific Heat {J/kg-K}

Material,
    M11 100mm lightweight concrete,  !- Name
    MediumRough,             !- Roughness
    0.1016,                  !- Thickness {m}
    0.53,                    !- Conductivity {W/m-K}
    1280,                    !- Density {kg/m3}
    840;                     !- Specific Heat {J/kg-K}

Material,
    F16 Acoustic tile,       !- Name
    MediumSmooth,            !- Roughness
    0.0191,                  !- Thickness {m}
    0.06,                    !- Conductivity {W/m-K}
    368,                     !- Density {kg/m3}
    590;                     !- Specific Heat {J/kg-K}

Material,
    M01 100mm brick,         !- Name
    MediumRough,             !- Roughness
    0.1016,                  !- Thickness {m}
    0.89,                    !- Conductivity {W/m-K}
    1920,                    !- Density {kg/m3}
    790;                     !- Specific Heat {J/kg-K}

Material,
    M15 200mm heavyweight concrete,  !- Name
    MediumRough,             !- Roughness
    0.2032,                  !- Thickness {m}
    1.95,                    !- Conductivity {W/m-K}
    2240,                    !- Density {kg/m3}
    900;                     !- Specific Heat {J/kg-K}

Material,
    M05 200mm concrete block,!- Name
    MediumRough,             !- Roughness
    0.2032,                  !- Thickness {m}
    1.11,                    !- Conductivity {W/m-K}
    800,                     !- Density {kg/m3}
    920;                     !- Specific Heat {J/kg-K}

Material,
    G05 25mm wood,           !- Name
    MediumSmooth,            !- Roughness
    0.0254,                  !- Thickness {m}
    0.15,                    !- Conductivity {W/m-K}
    608,                     !- Density {kg/m3}
    1630;                    !- Specific Heat {J/kg-K}


!-   ===========  ALL OBJECTS IN CLASS: MATERIAL:AIRGAP ===========

Material:AirGap,
    F04 Wall air space resistance,  !- Name
    0.15;                    !- Thermal Resistance {m2-K/W}

Material:AirGap,
    F05 Ceiling air space resistance,  !- Name
    0.18;                    !- Thermal Resistance {m2-K/W}


!-   ===========  ALL OBJECTS IN CLASS: WINDOWMATERIAL:GLAZING ===========

WindowMaterial:Glazing,
    Clear 3mm,               !- Name
    SpectralAverage,         !- Optical Data Type
    ,                        !- Window Glass Spectral Data Set Name
    0.003,                   !- Thickness {m}
    0.837,                   !- Solar Transmittance at Normal Incidence
    0.075,                   !- Front Side Solar Reflectance at Normal Incidence
    0.075,                   !- Back Side Solar Reflectance at Normal Incidence
    0.898,                   !- Visible Transmittance at Normal Incidence
    0.081,                   !- Front Side Visible Reflectance at Normal Incidence
    0.081,                   !- Back Side Visible Reflectance at Normal Incidence
    0,                       !- Infrared Transmittance at Normal Incidence
    0.84,                    !- Front Side Infrared Hemispherical Emissivity
    0.84,                    !- Back Side Infrared Hemispherical Emissivity
    0.9;                     !- Conductivity {W/m-K}


!-   ===========  ALL OBJECTS IN CLASS: WINDOWMATERIAL:GAS ===========

WindowMaterial:Gas,
    Air 13mm,                !- Name
    Air,                     !- Gas Type
    0.0127;                  !- Thickness {m}


!-   ===========  ALL OBJECTS IN CLASS: CONSTRUCTION ===========

Construction,
    Exterior Floor,          !- Name
    I02 50mm insulation board,  !- Outside Layer
    M15 200mm heavyweight concrete;  !- Layer 2

Construction,
    Interior Floor,          !- Name
    F16 Acoustic tile,       !- Outside Layer
    F05 Ceiling air space resistance,  !- Layer 2
    M11 100mm lightweight concrete;  !- Layer 3

Construction,
    Exterior Wall,           !- Name
    M01 100mm brick,         !- Outside Layer
    M15 200mm heavyweight concrete,  !- Layer 2
    I02 50mm insulation board,  !- Layer 3
    F04 Wall air space resistance,  !- Layer 4
    G01a 19mm gypsum board;  !- Layer 5

Construction,
    Interior Wall,           !- Name
    G01a 19mm gypsum board,  !- Outside Layer
    F04 Wall air space resistance,  !- Layer 2
    G01a 19mm gypsum board;  !- Layer 3

Construction,
    Exterior Roof,           !- Name
    M11 100mm lightweight concrete,  !- Outside Layer
    F05 Ceiling air space resistance,  !- Layer 2
    F16 Acoustic tile;       !- Layer 3

Construction,
    Interior Ceiling,        !- Name
    M11 100mm lightweight concrete,  !- Outside Layer
    F05 Ceiling air space resistance,  !- Layer 2
    F16 Acoustic tile;       !- Layer 3

Construction,
    Exterior Window,         !- Name
    Clear 3mm,               !- Outside Layer
    Air 13mm,                !- Layer 2
    Clear 3mm;               !- Layer 3

Construction,
    Interior Window,         !- Name
    Clear 3mm;               !- Outside Layer

Construction,
    Exterior Door,           !- Name
    F08 Metal surface,       !- Outside Layer
    I01 25mm insulation board;  !- Layer 2

Construction,
    Interior Door,           !- Name
    G05 25mm wood;           !- Outside Layer


!-   ===========  ALL OBJECTS IN CLASS: GLOBALGEOMETRYRULES ===========

GlobalGeometryRules,
    UpperLeftCorner,         !- Starting Vertex Position
    Counterclockwise,        !- Vertex Entry Direction
    Relative;                !- Coordinate System


!-   ===========  ALL OBJECTS IN CLASS: ZONE ===========

Zone,
    South Loading Dock,      !- Name
    0.0,                     !- Direction of Relative North {deg}
    -14.299366, 9.32476, 0.0,           !- X,Y,Z  {m}
    ,                        !- Type
    1;                       !- Multiplier

Zone,
    North Loading Dock,      !- Name
    0.0,                     !- Direction of Relative North {deg}
    -17.904929, 55.586612, 0.0,         !- X,Y,Z  {m}
    ,                        !- Type
    1;                       !- Multiplier

Zone,
    Storage,                 !- Name
    0.0,                     !- Direction of Relative North {deg}
    -50.464789, 28.414344, 0.0,         !- X,Y,Z  {m}
    ,                        !- Type
    1;                       !- Multiplier

Zone,
    Lunchroom,               !- Name
    0.0,                     !- Direction of Relative North {deg}
    78.820818, -10.404796, 0.0,         !- X,Y,Z  {m}
    ,                        !- Type
    1;                       !- Multiplier

Zone,
    Bathroom,                !- Name
    0.0,                     !- Direction of Relative North {deg}
    39.847877, -2.716232, 0.0,          !- X,Y,Z  {m}
    ,                        !- Type
    1;                       !- Multiplier

Zone,
    Office,                  !- Name
    0.0,                     !- Direction of Relative North {deg}