!-Generator IDFEditor 1.47
!-Option SortedOrder UseSpecialFormat

!-NOTE: All comments with '!-' are ignored by the IDFEditor and are generated automatically.
!-      Use '!' comments if they need to be retained when using the IDFEditor.


!-   ===========  ALL OBJECTS IN CLASS: VERSION ===========

!
! WeatherFile:  USA_IL_Chicago-OHare.Intl.AP.725300_TMY3.epw
! IDF File:     /phome/comstd/CtrlBenefit/simulation_FY2017_Main/OfficeSmall/sim_annual/input.nobackup/EEM00Base_OfficeSmall_base_Chicago.idf
! Run Case:     EEM00Base_OfficeSmall_base_Chicago
!
! GPARM parameters as input:
!    Case = EEM00Base_OfficeSmall_base_Chicago
!    Wfile_TMY3 = USA_IL_Chicago-OHare.Intl.AP.725300_TMY3.epw
!    EEM01_Retune_MECH_SENS = base
!    EEM02_Retune_MECH_REFRG = base
!    EEM04_Retune_Mech_HVAC = base
!    EEM06_Retune_Mech_ECON = base
!    EEM07_Retune_MECH_ExtFanShut = base
!    EEM09_Retune_Mech_DAMP = base
!    EEM17_Retune_Mech_DBAN = base
!    EEM18_AdvCtrl_MECH_DCV = base
!    EEM19_AdCtrl_LTG_OCCS = base
!    EEM20_AdvCtrl_MECH_DLgtCtrl = base
!    EEM21_AdvCtrl_LTG_EXT = base
!    EEM22_AdCtrl_PLUG_PlugCtrl = base
!    EEM23_AdvCtrl_MECH_nightPurge = base
!    EEM24_AdvCtrl_MECH_RTU = base
!    EEM33_PoCtrl_Mech_OPTM = base
!    EEM34_GridDR_MECH_Set = base
!    EEM35_GridDR_MECH_precool = base
!    EEM36_GridDR_MECH_DutyCyc = base
!    EEM37_GridDR_LTG_Clean = base
!    EEM41_Retrofit_MECH_LTG = base
!    EEM42_Retrofit_LTG_EXT = base
!    EEM46_Retrofit_MECH_COP = base
!    EEM47_Retrofit_MECH_EVAP = base
!    EEM48_Retrofit_MECH_PUHP = base
!    EEM49_Retrofit_MECH_SWH = base
!    EEM51_Retrofit_ENV_Window = base
!    EEM52_Retrofit_ENV_Wall = base
!    EEM53_Retrofit_ENV_Roof = base
!    EEM72_Retune_MECH_HtgClgLockout = base
Version,8.4;

!-   ===========  ALL OBJECTS IN CLASS: SIMULATIONCONTROL ===========


SimulationControl,
    Yes,                     !- Do Zone Sizing Calculation
    Yes,                     !- Do System Sizing Calculation
    No,                      !- Do Plant Sizing Calculation
    No,                     !- Run Simulation for Sizing Periods
    YES;                     !- Run Simulation for Weather File Run Periods


!-   ===========  ALL OBJECTS IN CLASS: BUILDING ===========

Building,
    Office Small AEDG-50,    !- Name
    0,                       !- North Axis {deg}
    Suburbs,                 !- Terrain
    0.5,                     !- Loads Convergence Tolerance Value
    0.4,                     !- Temperature Convergence Tolerance Value {deltaC}
    FullInteriorAndExterior, !- Solar Distribution
    25,                      !- Maximum Number of Warmup Days
    6;                       !- Minimum Number of Warmup Days


!-   ===========  ALL OBJECTS IN CLASS: SHADOWCALCULATION ===========

ShadowCalculation,
    AverageOverDaysInFrequency,  !- Calculation Method
    30;                      !- Calculation Frequency


!-   ===========  ALL OBJECTS IN CLASS: SURFACECONVECTIONALGORITHM:INSIDE ===========

SurfaceConvectionAlgorithm:Inside,TARP;

!-   ===========  ALL OBJECTS IN CLASS: SURFACECONVECTIONALGORITHM:OUTSIDE ===========

SurfaceConvectionAlgorithm:Outside,TARP;

!-   ===========  ALL OBJECTS IN CLASS: HEATBALANCEALGORITHM ===========

HeatBalanceAlgorithm,ConductionTransferFunction;

!-   ===========  ALL OBJECTS IN CLASS: TIMESTEP ===========

  Timestep,60;

!-   ===========  ALL OBJECTS IN CLASS: CONVERGENCELIMITS ===========


ConvergenceLimits,
    1,                       !- Minimum System Timestep {minutes}
    25;                      !- Maximum HVAC Iterations


!-   ===========  ALL OBJECTS IN CLASS: SITE:LOCATION ===========

! TODO: this is not working for some reason
! Site:Location and design-day objects created by:
! /tools/bin/ddy2idf /phome/weather/EnergyPlus/tmy3.new/all/USA_IL_Chicago-OHare.Intl.AP.725300_TMY3.ddy
!
Site:Location,
    Chicago Ohare Intl Ap_IL_USA Design_Conditions,  !- Name
    41.98,                   !- Latitude {deg}
    -87.92,                  !- Longitude {deg}
    -6.00,                   !- Time Zone {hr}
    201.00;                  !- Elevation {m}


!-   ===========  ALL OBJECTS IN CLASS: SIZINGPERIOD:DESIGNDAY ===========

SizingPeriod:DesignDay,
    Chicago Ohare Intl Ap Ann Htg 99.6% Condns DB,  !- Name
    1,                       !- Month
    21,                      !- Day of Month
    WinterDesignDay,         !- Day Type
    -20,                     !- Maximum Dry-Bulb Temperature {C}
    0.0,                     !- Daily Dry-Bulb Temperature Range {deltaC}
    DefaultMultipliers,      !- Dry-Bulb Temperature Range Modifier Type
    ,                        !- Dry-Bulb Temperature Range Modifier Day Schedule Name
    Wetbulb,                 !- Humidity Condition Type
    -20,                     !- Wetbulb or DewPoint at Maximum Dry-Bulb {C}
    ,                        !- Humidity Condition Day Schedule Name
    ,                        !- Humidity Ratio at Maximum Dry-Bulb {kgWater/kgDryAir}
    ,                        !- Enthalpy at Maximum Dry-Bulb {J/kg}
    ,                        !- Daily Wet-Bulb Temperature Range {deltaC}
    98934.,                  !- Barometric Pressure {Pa}
    4.9,                     !- Wind Speed {m/s}
    270,                     !- Wind Direction {deg}
    No,                      !- Rain Indicator
    No,                      !- Snow Indicator
    No,                      !- Daylight Saving Time Indicator
    ASHRAEClearSky,          !- Solar Model Indicator
    ,                        !- Beam Solar Day Schedule Name
    ,                        !- Diffuse Solar Day Schedule Name
    ,                        !- ASHRAE Clear Sky Optical Depth for Beam Irradiance (taub) {dimensionless}
    ,                        !- ASHRAE Clear Sky Optical Depth for Diffuse Irradiance (taud) {dimensionless}
    0.00;                    !- Sky Clearness

SizingPeriod:DesignDay,
    Chicago Ohare Intl Ap Ann Clg .4% Condns DB=>MWB,  !- Name
    7,                       !- Month
    21,                      !- Day of Month
    SummerDesignDay,         !- Day Type
    33.3,                    !- Maximum Dry-Bulb Temperature {C}
    10.5,                    !- Daily Dry-Bulb Temperature Range {deltaC}
    DefaultMultipliers,      !- Dry-Bulb Temperature Range Modifier Type
    ,                        !- Dry-Bulb Temperature Range Modifier Day Schedule Name
    Wetbulb,                 !- Humidity Condition Type
    23.7,                    !- Wetbulb or DewPoint at Maximum Dry-Bulb {C}
    ,                        !- Humidity Condition Day Schedule Name
    ,                        !- Humidity Ratio at Maximum Dry-Bulb {kgWater/kgDryAir}
    ,                        !- Enthalpy at Maximum Dry-Bulb {J/kg}
    ,                        !- Daily Wet-Bulb Temperature Range {deltaC}
    98934.,                  !- Barometric Pressure {Pa}
    5.2,                     !- Wind Speed {m/s}
    230,                     !- Wind Direction {deg}
    No,                      !- Rain Indicator
    No,                      !- Snow Indicator
    No,                      !- Daylight Saving Time Indicator
    ASHRAETau,               !- Solar Model Indicator
    ,                        !- Beam Solar Day Schedule Name
    ,                        !- Diffuse Solar Day Schedule Name
    0.455,                   !- ASHRAE Clear Sky Optical Depth for Beam Irradiance (taub) {dimensionless}
    2.050;                   !- ASHRAE Clear Sky Optical Depth for Diffuse Irradiance (taud) {dimensionless}


!-   ===========  ALL OBJECTS IN CLASS: RUNPERIOD ===========

RunPeriod,
    ,                        !- Name
    6,                       !- Begin Month
    21,                       !- Begin Day of Month
    6,                      !- End Month
    21,                      !- End Day of Month
    Monday,                  !- Day of Week for Start Day
    No,                      !- Use Weather File Holidays and Special Days
    No,                      !- Use Weather File Daylight Saving Period
    Yes,                     !- Apply Weekend Holiday Rule
    Yes,                     !- Use Weather File Rain Indicators
    Yes,                     !- Use Weather File Snow Indicators
    1;                       !- Number of Times Runperiod to be Repeated


!-   ===========  ALL OBJECTS IN CLASS: RUNPERIODCONTROL:SPECIALDAYS ===========

!===============================================================================
! USHolidays-DST.idf
!
! US National Holidays
RunPeriodControl:SpecialDays,
    New Years Day,           !- Name
    January 1,               !- Start Date
    1,                       !- Duration {days}
    Holiday;                 !- Special Day Type

RunPeriodControl:SpecialDays,
    Veterans Day,            !- Name
    November 11,             !- Start Date
    1,                       !- Duration {days}
    Holiday;                 !- Special Day Type

RunPeriodControl:SpecialDays,
    Christmas,               !- Name
    December 25,             !- Start Date
    1,                       !- Duration {days}
    Holiday;                 !- Special Day Type

RunPeriodControl:SpecialDays,
    Independence Day,        !- Name
    July 4,                  !- Start Date
    1,                       !- Duration {days}
    Holiday;                 !- Special Day Type

RunPeriodControl:SpecialDays,
    MLK Day,                 !- Name
    3rd Monday in January,   !- Start Date
    1,                       !- Duration {days}
    Holiday;                 !- Special Day Type

RunPeriodControl:SpecialDays,
    Presidents Day,          !- Name
    3rd Monday in February,  !- Start Date
    1,                       !- Duration {days}
    Holiday;                 !- Special Day Type

RunPeriodControl:SpecialDays,
    Memorial Day,            !- Name
    Last Monday in May,      !- Start Date
    1,                       !- Duration {days}
    Holiday;                 !- Special Day Type

RunPeriodControl:SpecialDays,
    Labor Day,               !- Name
    1st Monday in September, !- Start Date
    1,                       !- Duration {days}
    Holiday;                 !- Special Day Type

RunPeriodControl:SpecialDays,
    Columbus Day,            !- Name
    2nd Monday in October,   !- Start Date
    1,                       !- Duration {days}
    Holiday;                 !- Special Day Type

RunPeriodControl:SpecialDays,
    Thanksgiving,            !- Name
    4th Thursday in November,!- Start Date
    1,                       !- Duration {days}
    Holiday;                 !- Special Day Type


!-   ===========  ALL OBJECTS IN CLASS: RUNPERIODCONTROL:DAYLIGHTSAVINGTIME ===========

! Daylight Saving Period in US
RunPeriodControl:DaylightSavingTime,
    2nd Sunday in March,     !- Start Date
    1st Sunday in November;  !- End Date


!-   ===========  ALL OBJECTS IN CLASS: SITE:WATERMAINSTEMPERATURE ===========

Site:WaterMainsTemperature,
    Correlation,             !- Calculation Method
    ,                        !- Temperature Schedule Name
    9.93,                    !- Annual Average Outdoor Air Temperature {C}
    28.7;                    !- Maximum Difference In Monthly Average Outdoor Air Temperatures {deltaC}


!-   ===========  ALL OBJECTS IN CLASS: SCHEDULETYPELIMITS ===========

ScheduleTypeLimits,
    Fraction,                !- Name
    0.0,                     !- Lower Limit Value
    1.0,                     !- Upper Limit Value
    Continuous;              !- Numeric Type

ScheduleTypeLimits,
    Temperature,             !- Name
    -60,                     !- Lower Limit Value
    200,                     !- Upper Limit Value
    Continuous;              !- Numeric Type

ScheduleTypeLimits,
    Any Number,              !- Name
    0.0,                     !- Lower Limit Value
    1000,                    !- Upper Limit Value
    Continuous;              !- Numeric Type

ScheduleTypeLimits,
    COMPACT HVAC Any Number; !- Name

ScheduleTypeLimits,
    On/Off,                  !- Name
    0,                       !- Lower Limit Value
    1,                       !- Upper Limit Value
    Discrete;                !- Numeric Type


!-   ===========  ALL OBJECTS IN CLASS: SCHEDULE:COMPACT ===========

Schedule:Compact,
    Always-On,               !- Name
    Fraction,                !- Schedule Type Limits Name
    Through: 12/31,          !- Field 1
    For: AllDays,            !- Field 2
    Until: 24:00, 1.0;       !- Field 4

Schedule:Compact,
    Always-Off,              !- Name
    Fraction,                !- Schedule Type Limits Name
    Through: 12/31,          !- Field 1
    For: AllDays,            !- Field 2
    Until: 24:00, 0.0;       !- Field 4

Schedule:Compact,
    Occ 1/0,                 !- Name
    Fraction,                !- Schedule Type Limits Name
    Through: 12/31,          !- Field 1
    For: Weekdays,           !- Field 2
    Until: 06:00, 0.0,       !- Field 4
    Until: 07:00, 0.1,       !- Field 6
    Until: 08:00, 0.2,       !- Field 8
    Until: 12:00, 0.95,      !- Field 10
    Until: 13:00, 0.5,       !- Field 12
    Until: 17:00, 0.95,      !- Field 14
    Until: 18:00, 0.3,       !- Field 16
    Until: 22:00, 0.1,       !- Field 18
    Until: 24:00, 0.05,      !- Field 20
    For: SummerDesignDay,    !- Field 21
    Until: 06:00, 0.0,       !- Field 23
    Until: 22:00, 1.0,       !- Field 25
    Until: 24:00, 0.05,      !- Field 27
    For: Saturday,           !- Field 28
    Until: 06:00, 0.0,       !- Field 30
    Until: 08:00, 0.1,       !- Field 32
    Until: 12:00, 0.3,       !- Field 34
    Until: 17:00, 0.1,       !- Field 36
    Until: 19:00, 0.05,      !- Field 38
    Until: 24:00, 0.0,       !- Field 40
    For: WinterDesignDay,    !- Field 41
    Until: 24:00, 0.0,       !- Field 43
    For: Sunday Holidays AllOtherDays,  !- Field 44
    Until: 06:00, 0.0,       !- Field 46
    Until: 18:00, 0.05,      !- Field 48
    Until: 24:00, 0.0;       !- Field 50

! EEM19_AdCtrl_LTG_OCCS
! line 420-462
Schedule:Compact,
    Lgt 1/0,                 !- Name
    Fraction,                !- Schedule Type Limits Name
    Through: 12/31,          !- Field 1
    For: Weekdays,           !- Field 2
    Until: 05:00, 0.15,      !- Field 4
    Until: 07:00, 0.15,      !- Field 6
    Until: 08:00, 0.3,       !- Field 8
    Until: 17:00, 0.9,       !- Field 10
    Until: 18:00, 0.5,       !- Field 12
    Until: 20:00, 0.3,       !- Field 14
    Until: 22:00, 0.2,       !- Field 16
    Until: 23:00, 0.15,      !- Field 18
    Until: 24:00, 0.15,      !- Field 20
    For: SummerDesignDay,    !- Field 21
    Until: 24:00, 1.0,       !- Field 23
    For: Saturday,           !- Field 24
    Until: 06:00, 0.15,      !- Field 26
    Until: 08:00, 0.15,      !- Field 28
    Until: 12:00, 0.3,       !- Field 30
    Until: 17:00, 0.15,      !- Field 32
    Until: 24:00, 0.15,      !- Field 34
    For: WinterDesignDay,    !- Field 35
    Until: 24:00, 0.0,       !- Field 37
    For: Sunday Holidays AllOtherDays,  !- Field 38
    Until: 24:00, 0.15;      !- Field 40

Schedule:Compact,
    Occup Sensor 1/0,        !- Name
    Fraction,                !- Schedule Type Limits Name
    Through: 12/31,          !- Field 1
    For: WeekDays,           !- Field 2
    Until: 5:00, 0.18,       !- Field 4
    Until: 7:00, 0.23,       !- Field 6
    Until: 8:00, 0.42,       !- Field 8
    Until: 12:00, 0.765,     !- Field 10
    Until: 13:00, 0.68,      !- Field 12
    Until: 17:00, 0.765,     !- Field 14
    Until: 18:00, 0.61,      !- Field 16
    Until: 19:00, 0.42,      !- Field 18
    Until: 22:00, 0.32,      !- Field 20
    Until: 23:00, 0.23,      !- Field 22
    Until: 24:00, 0.18,      !- Field 24
    For: Weekends,           !- Field 25
    Until: 24:00, 0.18,      !- Field 27
    For: Holiday,            !- Field 28
    Until: 24:00, 0.18,      !- Field 30
    For: WinterDesignDay,    !- Field 31
    Until: 24:00, 0.0,       !- Field 33
    For: SummerDesignDay,    !- Field 34
    Until: 24:00, 1.0,       !- Field 36
    For: CustomDay1,         !- Field 37
    Until: 24:00, 0.0,       !- Field 39
    For: CustomDay2,         !- Field 40
    Until: 24:00, 0.0;       !- Field 42

Schedule:Compact,
    Eqp 1/0,                 !- Name
    Fraction,                !- Schedule Type Limits Name
    Through: 12/31,          !- Field 1
    For: Weekdays,           !- Field 2
    Until: 08:00, 0.40,      !- Field 4
    Until: 12:00, 0.90,      !- Field 6
    Until: 13:00, 0.80,      !- Field 8
    Until: 17:00, 0.90,      !- Field 10
    Until: 18:00, 0.50,      !- Field 12
    Until: 24:00, 0.40,      !- Field 14
    For: SummerDesignDay,    !- Field 15
    Until: 24:00, 1.0,       !- Field 17
    For: Saturday,           !- Field 18
    Until: 06:00, 0.30,      !- Field 20
    Until: 08:00, 0.4,       !- Field 22
    Until: 12:00, 0.5,       !- Field 24
    Until: 17:00, 0.35,      !- Field 26
    Until: 24:00, 0.30,      !- Field 28
    For: WinterDesignDay,    !- Field 29
    Until: 24:00, 0.0,       !- Field 31
    For: Sunday Holidays AllOtherDays,  !- Field 32
    Until: 24:00, 0.30;      !- Field 34

Schedule:Compact,
    BLDG_EQUIP_SCH_AEDG,     !- Name
    Fraction,                !- Schedule Type Limits Name
    Through: 12/31,          !- Field 1
    For: Weekdays,           !- Field 2
    Until: 08:00, 0.30,      !- Field 4
    Until: 12:00, 0.80,      !- Field 6
    Until: 13:00, 0.65,      !- Field 8
    Until: 17:00, 0.80,      !- Field 10
    Until: 18:00, 0.35,      !- Field 12
    Until: 24:00, 0.30,      !- Field 14
    For: SummerDesignDay,    !- Field 15
    Until: 24:00, 1.0,       !- Field 17
    For: Saturday,           !- Field 18
    Until: 06:00, 0.20,      !- Field 20
    Until: 08:00, 0.25,      !- Field 22
    Until: 12:00, 0.30,      !- Field 24
    Until: 17:00, 0.25,      !- Field 26
    Until: 24:00, 0.20,      !- Field 28
    For: WinterDesignDay,    !- Field 29
    Until: 24:00, 0.0,       !- Field 31
    For: Sunday Holidays AllOtherDays,  !- Field 32
    Until: 24:00, 0.20;      !- Field 34

! PART1: EEM04_Retune_Mech_HVAC: Cool 1/0 schedule line 586-628
! PART1: EEM17_Retune_Mech_DBAN: also change Cool 1/0
Schedule:Compact,
    Cool_1,                  !- Name
    Temperature,             !- Schedule Type Limits Name
    Through: 12/31,          !- Field 1
    For: Weekdays,           !- Field 2
    Until: 05:00, 26.7,      !- Field 4
    Until: 06:00, 25.2,      !- Field 6
    Until: 07:00, 23.9,      !- Field 8
    Until: 22:00, 22.8,      !- Field 10
    Until: 24:00, 26.7,      !- Field 12
    For: Saturday,           !- Field 13
    Until: 05:00, 26.7,      !- Field 15
    Until: 06:00, 25.2,      !- Field 17
    Until: 07:00, 23.9,      !- Field 19
    Until: 18:00, 22.8,      !- Field 21
    Until: 24:00, 26.7,      !- Field 23
    For: SummerDesignDay,    !- Field 24
    Until: 05:00, 26.7,      !- Field 26
    Until: 06:00, 25.2,      !- Field 28
    Until: 07:00, 23.9,      !- Field 30
    Until: 22:00, 22.8,      !- Field 32
    Until: 24:00, 26.7,      !- Field 34
    For: WinterDesignDay,    !- Field 35
    Until: 24:00, 26.7,      !- Field 37
    For: Sunday Holidays AllOtherDays,  !- Field 38
    Until: 24:00, 26.7;      !- Field 40

Schedule:Compact,
    Cool_1_1,                !- Name
    Temperature,             !- Schedule Type Limits Name
    Through: 12/31,          !- Field 1
    For: Weekdays,           !- Field 2
    Until: 05:00, 26.7,      !- Field 4
    Until: 06:00, 25.2,      !- Field 6
    Until: 07:00, 23.9,      !- Field 8
    Until: 22:00, 22.8,      !- Field 10
    Until: 24:00, 26.7,      !- Field 12
    For: Saturday,           !- Field 13
    Until: 05:00, 26.7,      !- Field 15
    Until: 06:00, 25.2,      !- Field 17
    Until: 07:00, 23.9,      !- Field 19
    Until: 18:00, 22.8,      !- Field 21
    Until: 24:00, 26.7,      !- Field 23
    For: SummerDesignDay,    !- Field 24
    Until: 05:00, 26.7,      !- Field 26
    Until: 06:00, 25.2,      !- Field 28
    Until: 07:00, 23.9,      !- Field 30
    Until: 22:00, 22.8,      !- Field 32
    Until: 24:00, 26.7,      !- Field 34
    For: WinterDesignDay,    !- Field 35
    Until: 24:00, 26.7,      !- Field 37
    For: Sunday Holidays AllOtherDays,  !- Field 38
    Until: 24:00, 26.7;      !- Field 40

Schedule:Compact,
    Cool_1_2,                !- Name
    Temperature,             !- Schedule Type Limits Name
    Through: 12/31,          !- Field 1
    For: Weekdays,           !- Field 2
    Until: 05:00, 26.7,      !- Field 4
    Until: 06:00, 25.2,      !- Field 6
    Until: 07:00, 23.9,      !- Field 8
    Until: 22:00, 22.8,      !- Field 10
    Until: 24:00, 26.7,      !- Field 12
    For: Saturday,           !- Field 13
    Until: 05:00, 26.7,      !- Field 15
    Until: 06:00, 25.2,      !- Field 17
    Until: 07:00, 23.9,      !- Field 19
    Until: 18:00, 22.8,      !- Field 21
    Until: 24:00, 26.7,      !- Field 23
    For: SummerDesignDay,    !- Field 24
    Until: 05:00, 26.7,      !- Field 26
    Until: 06:00, 25.2,      !- Field 28
    Until: 07:00, 23.9,      !- Field 30
    Until: 22:00, 22.8,      !- Field 32
    Until: 24:00, 26.7,      !- Field 34
    For: WinterDesignDay,    !- Field 35
    Until: 24:00, 26.7,      !- Field 37
    For: Sunday Holidays AllOtherDays,  !- Field 38
    Until: 24:00, 26.7;      !- Field 40

Schedule:Compact,
    Cool_1_3,                !- Name
    Temperature,             !- Schedule Type Limits Name
    Through: 12/31,          !- Field 1
    For: Weekdays,           !- Field 2
    Until: 05:00, 26.7,      !- Field 4
    Until: 06:00, 25.2,      !- Field 6
    Until: 07:00, 23.9,      !- Field 8
    Until: 22:00, 22.8,      !- Field 10
    Until: 24:00, 26.7,      !- Field 12
    For: Saturday,           !- Field 13
    Until: 05:00, 26.7,      !- Field 15
    Until: 06:00, 25.2,      !- Field 17
    Until: 07:00, 23.9,      !- Field 19
    Until: 18:00, 22.8,      !- Field 21
    Until: 24:00, 26.7,      !- Field 23
    For: SummerDesignDay,    !- Field 24
    Until: 05:00, 26.7,      !- Field 26
    Until: 06:00, 25.2,      !- Field 28
    Until: 07:00, 23.9,      !- Field 30
    Until: 22:00, 22.8,      !- Field 32
    Until: 24:00, 26.7,      !- Field 34
    For: WinterDesignDay,    !- Field 35
    Until: 24:00, 26.7,      !- Field 37
    For: Sunday Holidays AllOtherDays,  !- Field 38
    Until: 24:00, 26.7;      !- Field 40

Schedule:Compact,
    Cool_1_4,                !- Name
    Temperature,             !- Schedule Type Limits Name
    Through: 12/31,          !- Field 1
    For: Weekdays,           !- Field 2
    Until: 05:00, 26.7,      !- Field 4
    Until: 06:00, 25.2,      !- Field 6
    Until: 07:00, 23.9,      !- Field 8
    Until: 22:00, 22.8,      !- Field 10
    Until: 24:00, 26.7,      !- Field 12
    For: Saturday,           !- Field 13
    Until: 05:00, 26.7,      !- Field 15
    Until: 06:00, 25.2,      !- Field 17
    Until: 07:00, 23.9,      !- Field 19
    Until: 18:00, 22.8,      !- Field 21
    Until: 24:00, 26.7,      !- Field 23
    For: SummerDesignDay,    !- Field 24
    Until: 05:00, 26.7,      !- Field 26
    Until: 06:00, 25.2,      !- Field 28
    Until: 07:00, 23.9,      !- Field 30
    Until: 22:00, 22.8,      !- Field 32
    Until: 24:00, 26.7,      !- Field 34
    For: WinterDesignDay,    !- Field 35
    Until: 24:00, 26.7,      !- Field 37
    For: Sunday Holidays AllOtherDays,  !- Field 38
    Until: 24:00, 26.7;      !- Field 40

Schedule:Compact,
    Cool_1_5,                !- Name
    Temperature,             !- Schedule Type Limits Name
    Through: 12/31,          !- Field 1
    For: Weekdays,           !- Field 2
    Until: 05:00, 26.7,      !- Field 4
    Until: 06:00, 25.2,      !- Field 6
    Until: 07:00, 23.9,      !- Field 8
    Until: 22:00, 22.8,      !- Field 10
    Until: 24:00, 26.7,      !- Field 12
    For: Saturday,           !- Field 13
    Until: 05:00, 26.7,      !- Field 15
    Until: 06:00, 25.2,      !- Field 17
    Until: 07:00, 23.9,      !- Field 19
    Until: 18:00, 22.8,      !- Field 21
    Until: 24:00, 26.7,      !- Field 23
    For: SummerDesignDay,    !- Field 24
    Until: 05:00, 26.7,      !- Field 26
    Until: 06:00, 25.2,      !- Field 28
    Until: 07:00, 23.9,      !- Field 30
    Until: 22:00, 22.8,      !- Field 32
    Until: 24:00, 26.7,      !- Field 34
    For: WinterDesignDay,    !- Field 35
    Until: 24:00, 26.7,      !- Field 37
    For: Sunday Holidays AllOtherDays,  !- Field 38
    Until: 24:00, 26.7;      !- Field 40

Schedule:Compact,
    Cool_1_6,                !- Name
    Temperature,             !- Schedule Type Limits Name
    Through: 12/31,          !- Field 1
    For: Weekdays,           !- Field 2
    Until: 05:00, 26.7,      !- Field 4
    Until: 06:00, 25.2,      !- Field 6
    Until: 07:00, 23.9,      !- Field 8
    Until: 22:00, 22.8,      !- Field 10
    Until: 24:00, 26.7,      !- Field 12
    For: Saturday,           !- Field 13
    Until: 05:00, 26.7,      !- Field 15
    Until: 06:00, 25.2,      !- Field 17
    Until: 07:00, 23.9,      !- Field 19
    Until: 18:00, 22.8,      !- Field 21
    Until: 24:00, 26.7,      !- Field 23
    For: SummerDesignDay,    !- Field 24
    Until: 05:00, 26.7,      !- Field 26
    Until: 06:00, 25.2,      !- Field 28
    Until: 07:00, 23.9,      !- Field 30
    Until: 22:00, 22.8,      !- Field 32
    Until: 24:00, 26.7,      !- Field 34
    For: WinterDesignDay,    !- Field 35
    Until: 24:00, 26.7,      !- Field 37
    For: Sunday Holidays AllOtherDays,  !- Field 38
    Until: 24:00, 26.7;      !- Field 40

Schedule:Compact,
    Cool_1_7,                !- Name
    Temperature,             !- Schedule Type Limits Name
    Through: 12/31,          !- Field 1
    For: Weekdays,           !- Field 2
    Until: 05:00, 26.7,      !- Field 4
    Until: 06:00, 25.2,      !- Field 6
    Until: 07:00, 23.9,      !- Field 8
    Until: 22:00, 22.8,      !- Field 10
    Until: 24:00, 26.7,      !- Field 12
    For: Saturday,           !- Field 13
    Until: 05:00, 26.7,      !- Field 15
    Until: 06:00, 25.2,      !- Field 17
    Until: 07:00, 23.9,      !- Field 19
    Until: 18:00, 22.8,      !- Field 21
    Until: 24:00, 26.7,      !- Field 23
    For: SummerDesignDay,    !- Field 24
    Until: 05:00, 26.7,      !- Field 26
    Until: 06:00, 25.2,      !- Field 28
    Until: 07:00, 23.9,      !- Field 30
    Until: 22:00, 22.8,      !- Field 32
    Until: 24:00, 26.7,      !- Field 34
    For: WinterDesignDay,    !- Field 35
    Until: 24:00, 26.7,      !- Field 37
    For: Sunday Holidays AllOtherDays,  !- Field 38
    Until: 24:00, 26.7;      !- Field 40

Schedule:Compact,
    Cool_1_8,                !- Name
    Temperature,             !- Schedule Type Limits Name
    Through: 12/31,          !- Field 1
    For: Weekdays,           !- Field 2
    Until: 05:00, 26.7,      !- Field 4
    Until: 06:00, 25.2,      !- Field 6
    Until: 07:00, 23.9,      !- Field 8
    Until: 22:00, 22.8,      !- Field 10
    Until: 24:00, 26.7,      !- Field 12
    For: Saturday,           !- Field 13
    Until: 05:00, 26.7,      !- Field 15
    Until: 06:00, 25.2,      !- Field 17
    Until: 07:00, 23.9,      !- Field 19
    Until: 18:00, 22.8,      !- Field 21
    Until: 24:00, 26.7,      !- Field 23
    For: SummerDesignDay,    !- Field 24
    Until: 05:00, 26.7,      !- Field 26
    Until: 06:00, 25.2,      !- Field 28
    Until: 07:00, 23.9,      !- Field 30
    Until: 22:00, 22.8,      !- Field 32
    Until: 24:00, 26.7,      !- Field 34
    For: WinterDesignDay,    !- Field 35
    Until: 24:00, 26.7,      !- Field 37
    For: Sunday Holidays AllOtherDays,  !- Field 38
    Until: 24:00, 26.7;      !- Field 40

Schedule:Compact,
    Cool_1_9,                !- Name
    Temperature,             !- Schedule Type Limits Name
    Through: 12/31,          !- Field 1
    For: Weekdays,           !- Field 2
    Until: 05:00, 26.7,      !- Field 4
    Until: 06:00, 25.2,      !- Field 6
    Until: 07:00, 23.9,      !- Field 8
    Until: 22:00, 22.8,      !- Field 10
    Until: 24:00, 26.7,      !- Field 12
    For: Saturday,           !- Field 13
    Until: 05:00, 26.7,      !- Field 15
    Until: 06:00, 25.2,      !- Field 17
    Until: 07:00, 23.9,      !- Field 19
    Until: 18:00, 22.8,      !- Field 21
    Until: 24:00, 26.7,      !- Field 23
    For: SummerDesignDay,    !- Field 24
    Until: 05:00, 26.7,      !- Field 26
    Until: 06:00, 25.2,      !- Field 28
    Until: 07:00, 23.9,      !- Field 30
    Until: 22:00, 22.8,      !- Field 32
    Until: 24:00, 26.7,      !- Field 34
    For: WinterDesignDay,    !- Field 35
    Until: 24:00, 26.7,      !- Field 37
    For: Sunday Holidays AllOtherDays,  !- Field 38
    Until: 24:00, 26.7;      !- Field 40

Schedule:Compact,
    Cool_1_10,               !- Name
    Temperature,             !- Schedule Type Limits Name
    Through: 12/31,          !- Field 1
    For: Weekdays,           !- Field 2
    Until: 05:00, 26.7,      !- Field 4
    Until: 06:00, 25.2,      !- Field 6
    Until: 07:00, 23.9,      !- Field 8
    Until: 22:00, 22.8,      !- Field 10
    Until: 24:00, 26.7,      !- Field 12
    For: Saturday,           !- Field 13
    Until: 05:00, 26.7,      !- Field 15
    Until: 06:00, 25.2,      !- Field 17
    Until: 07:00, 23.9,      !- Field 19
    Until: 18:00, 22.8,      !- Field 21
    Until: 24:00, 26.7,      !- Field 23
    For: SummerDesignDay,    !- Field 24
    Until: 05:00, 26.7,      !- Field 26
    Until: 06:00, 25.2,      !- Field 28
    Until: 07:00, 23.9,      !- Field 30
    Until: 22:00, 22.8,      !- Field 32
    Until: 24:00, 26.7,      !- Field 34
    For: WinterDesignDay,    !- Field 35
    Until: 24:00, 26.7,      !- Field 37
    For: Sunday Holidays AllOtherDays,  !- Field 38
    Until: 24:00, 26.7;      !- Field 40

! PART2: EEM04_Retune_Mech_HVAC: Heat 1/0 schedule line 630-672